# generated using pymatgen
data_Li2SnO3
_symmetry_space_group_name_H-M   'P 1'
_cell_length_a   5.30053962
_cell_length_b   5.30053962
_cell_length_c   10.03200000
_cell_angle_alpha   84.96011566
_cell_angle_beta   95.03988434
_cell_angle_gamma   59.93086847
_symmetry_Int_Tables_number   1
_chemical_formula_structural   Li2SnO3
_chemical_formula_sum   'Li8 Sn4 O12'
_cell_volume   240.121984511
_cell_formula_units_Z   4
loop_
 _symmetry_equiv_pos_site_id
 _symmetry_equiv_pos_as_xyz
  1  'x, y, z'
loop_
 _atom_site_type_symbol
 _atom_site_label
 _atom_site_symmetry_multiplicity
 _atom_site_fract_x
 _atom_site_fract_y
 _atom_site_fract_z
 _atom_site_occupancy
  Li  Li1  1  0.683000  0.161000  0.001000  1
  Li  Li2  1  0.317000  0.839000  0.999000  1
  Li  Li3  1  0.161000  0.683000  0.499000  1
  Li  Li4  1  0.839000  0.317000  0.501000  1
  Li  Li5  1  0.500000  1.000000  0.500000  1
  Li  Li6  1  0.000000  0.500000  0.000000  1
  Li  Li7  1  0.917000  0.917000  0.750000  1
  Li  Li8  1  0.083000  0.083000  0.250000  1
  Sn  Sn9  1  0.583500  0.583500  0.750000  1
  Sn  Sn10  1  0.416500  0.416500  0.250000  1
  Sn  Sn11  1  0.249200  0.249200  0.750000  1
  Sn  Sn12  1  0.750800  0.750800  0.250000  1
  O  O13  1  0.606600  0.874000  0.866700  1
  O  O14  1  0.393400  0.126000  0.133300  1
  O  O15  1  0.874000  0.606600  0.633300  1
  O  O16  1  0.126000  0.393400  0.366700  1
  O  O17  1  0.305400  0.525800  0.865800  1
  O  O18  1  0.694600  0.474200  0.134200  1
  O  O19  1  0.525800  0.305400  0.634200  1
  O  O20  1  0.474200  0.694600  0.365800  1
  O  O21  1  0.956400  0.225600  0.867100  1
  O  O22  1  0.043600  0.774400  0.132900  1
  O  O23  1  0.225600  0.956400  0.632900  1
  O  O24  1  0.774400  0.043600  0.367100  1
